7
Coordinates from potential E = -16.505384168012217Ïµ
H   0.7980885103083557    0.8043389353290709    0.44913208395632553
H   1.3584079007251761    1.4415209742511157    1.222015719745816
H   0.8930733638008281    0.4694129387295708    1.5085941795809994
H   1.7949112656995536    0.48990610568971277    0.8378914795166518
H   0.24714079929856556    1.3520580757469483    1.2492057309503122
H   1.7063451769147349    1.385216716423082    0.16398596589842568
H   0.749770421902525    1.9180559373907569    0.41819215334302795