7
Coordinates from potential E = -13.140759748644035Ïµ
H   0.6132891597502829    0.18477394679891063    0.3584307905126166
H   1.863620497343239    1.6028195208114746    0.21862378498230137
H   1.4853760623460446    1.4201380445047498    1.2507616691032004
H   0.4361614522797708    1.6940004808660234    1.5214031138653692
H   0.7302854964254195    0.6203033279766669    1.3796489602075817
H   0.8327799872095348    1.9242013691068938    0.4990227194986079
H   0.07804965375174067    1.123877093893928    0.6282798972456085