8
Coordinates from potential E = -19.821489192154758
H   2.2559292904196973    2.198750225722014    3.4824952118838723
H   2.652444383568216    1.8288251014841486    1.7457013438421578
H   3.075635961360005    1.8710026542457512    2.784110270307309
H   1.5721938132282747    2.1391009720994463    1.797422655452563
H   2.02439121680315    1.5369672694754541    2.6166267379446473
H   1.329157346362626    2.372636430421239    2.8677299110709717
H   2.3362297467168727    2.8314142320111504    1.3643014100679798
H   2.3304252185708645    2.62879779203241    2.4585630538811607
